03_OpenDSS_Circuits/Bellhaven_Circuit_Opendss/Loads_text_old.Txt
New Load.263514994_1 Phases= 1  Bus1=263514994.1 kV= 7.19976905311778  XFKVA=75.000000 PF= 0.98  kWh=24.320000 NumCust=1.000000 ! KW= 18.138019 
New Load.263514994_2 Phases= 1  Bus1=263514994.2 kV= 7.19976905311778  XFKVA=75.000000 PF= 0.98  kWh=24.320000 NumCust=0.000000 ! KW= 13.444529 
New Load.263514994_3 Phases= 1  Bus1=263514994.3 kV= 7.19976905311778  XFKVA=75.000000 PF= 0.98  kWh=24.320000 NumCust=0.000000 ! KW= 17.327622 
New Load.260972100_2 Phases= 1  Bus1=260972100.2 kV= 7.19976905311778  XFKVA=100.000000 PF= 0.98  kWh=72.000000 NumCust=7.000000 ! KW= 17.926039 
New Load.261002726_2 Phases= 1  Bus1=261002726.2 kV= 7.19976905311778  XFKVA=50.000000 PF= 0.98  kWh=89.000000 NumCust=10.000000 ! KW= 8.96302 
New Load.259005026_2 Phases= 1  Bus1=259005026.2 kV= 7.19976905311778  XFKVA=10.000000 PF= 0.98  kWh=18.000000 NumCust=1.000000 ! KW= 1.792604 
New Load.260784285_3 Phases= 1  Bus1=260784285.3 kV= 7.19976905311778  XFKVA=50.000000 PF= 0.98  kWh=65.000000 NumCust=10.000000 ! KW= 11.551748 
New Load.260784280_3 Phases= 1  Bus1=260784280.3 kV= 7.19976905311778  XFKVA=50.000000 PF= 0.98  kWh=79.000000 NumCust=9.000000 ! KW= 11.551748 
New Load.260972111_3 Phases= 1  Bus1=260972111.3 kV= 7.19976905311778  XFKVA=100.000000 PF= 0.98  kWh=83.000000 NumCust=8.000000 ! KW= 23.103496 
New Load.261002705_2 Phases= 1  Bus1=261002705.2 kV= 7.19976905311778  XFKVA=50.000000 PF= 0.98  kWh=60.000000 NumCust=6.000000 ! KW= 8.96302 
New Load.258850750_1 Phases= 1  Bus1=258850750.1 kV= 7.19976905311778  XFKVA=75.000000 PF= 0.98  NumCust=0.000000 ! KW= 18.138019 
New Load.258850750_2 Phases= 1  Bus1=258850750.2 kV= 7.19976905311778  XFKVA=75.000000 PF= 0.98  NumCust=0.000000 ! KW= 13.444529 
New Load.258850750_3 Phases= 1  Bus1=258850750.3 kV= 7.19976905311778  XFKVA=75.000000 PF= 0.98  NumCust=0.000000 ! KW= 17.327622 
New Load.258840489_3 Phases= 1  Bus1=258840489.3 kV= 7.19976905311778  XFKVA=50.000000 PF= 0.98  kWh=19.000000 NumCust=4.000000 ! KW= 11.551748 
New Load.260972116_3 Phases= 1  Bus1=260972116.3 kV= 7.19976905311778  XFKVA=100.000000 PF= 0.98  kWh=104.000000 NumCust=9.000000 ! KW= 23.103496 
New Load.261031159_1 Phases= 1  Bus1=261031159.1 kV= 7.19976905311778  XFKVA=75.000000 PF= 0.98  kWh=62.000000 NumCust=6.000000 ! KW= 18.138019 
New Load.260784305_3 Phases= 1  Bus1=260784305.3 kV= 7.19976905311778  XFKVA=50.000000 PF= 0.98  kWh=76.000000 NumCust=12.000000 ! KW= 11.551748 
New Load.460932367_1 Phases= 1  Bus1=460932367.1 kV= 7.19976905311778  XFKVA=50.000000 PF= 0.98  NumCust=0.000000 ! KW= 12.092012 
New Load.460932367_2 Phases= 1  Bus1=460932367.2 kV= 7.19976905311778  XFKVA=50.000000 PF= 0.98  NumCust=0.000000 ! KW= 8.96302 
New Load.460932367_3 Phases= 1  Bus1=460932367.3 kV= 7.19976905311778  XFKVA=50.000000 PF= 0.98  NumCust=0.000000 ! KW= 11.551748 
New Load.259005009_1 Phases= 1  Bus1=259005009.1 kV= 7.19976905311778  XFKVA=15.000000 PF= 0.98  kWh=27.000000 NumCust=3.000000 ! KW= 3.627604 
New Load.261085132_1 Phases= 1  Bus1=261085132.1 kV= 7.19976905311778  XFKVA=50.000000 PF= 0.98  kWh=140.000000 NumCust=9.000000 ! KW= 12.092012 
New Load.260784300_3 Phases= 1  Bus1=260784300.3 kV= 7.19976905311778  XFKVA=50.000000 PF= 0.98  kWh=75.000000 NumCust=11.000000 ! KW= 11.551748 
New Load.258840546_3 Phases= 1  Bus1=258840546.3 kV= 7.19976905311778  XFKVA=25.000000 PF= 0.98  NumCust=1.000000 ! KW= 5.775874 
New Load.259005099_3 Phases= 1  Bus1=259005099.3 kV= 7.19976905311778  XFKVA=25.000000 PF= 0.98  kWh=18.000000 NumCust=1.000000 ! KW= 5.775874 
New Load.263730561_1 Phases= 1  Bus1=263730561.1 kV= 7.19976905311778  XFKVA=50.000000 PF= 0.98  kWh=87.000000 NumCust=9.000000 ! KW= 12.092012 
New Load.469800067_1 Phases= 1  Bus1=469800067.1 kV= 7.19976905311778  XFKVA=166.700000 PF= 0.98  NumCust=0.000000 ! KW= 0 
New Load.469800067_2 Phases= 1  Bus1=469800067.2 kV= 7.19976905311778  XFKVA=166.700000 PF= 0.98  NumCust=0.000000 ! KW= 0 
New Load.469800067_3 Phases= 1  Bus1=469800067.3 kV= 7.19976905311778  XFKVA=166.700000 PF= 0.98  NumCust=0.000000 ! KW= 0 
New Load.261085128_1 Phases= 1  Bus1=261085128.1 kV= 7.19976905311778  XFKVA=50.000000 PF= 0.98  kWh=148.000000 NumCust=10.000000 ! KW= 12.092012 
New Load.260745472_3 Phases= 1  Bus1=260745472.3 kV= 7.19976905311778  XFKVA=75.000000 PF= 0.98  kWh=42.000000 NumCust=5.000000 ! KW= 17.327622 
New Load.460932291_2 Phases= 1  Bus1=460932291.2 kV= 7.19976905311778  XFKVA=50.000000 PF= 0.98  kWh=79.000000 NumCust=7.000000 ! KW= 8.96302 
New Load.260745432_2 Phases= 1  Bus1=260745432.2 kV= 7.19976905311778  XFKVA=75.000000 PF= 0.98  kWh=62.000000 NumCust=6.000000 ! KW= 13.444529 
New Load.263511745_3 Phases= 1  Bus1=263511745.3 kV= 7.19976905311778  XFKVA=10.000000 PF= 0.98  kWh=1.000000 NumCust=2.000000 ! KW= 2.31035 
New Load.263730579_2 Phases= 1  Bus1=263730579.2 kV= 7.19976905311778  XFKVA=50.000000 PF= 0.98  kWh=103.000000 NumCust=9.000000 ! KW= 8.96302 
New Load.263701639_2 Phases= 1  Bus1=263701639.2 kV= 7.19976905311778  XFKVA=50.000000 PF= 0.98  kWh=56.000000 NumCust=5.000000 ! KW= 8.96302 
New Load.263511718_1 Phases= 1  Bus1=263511718.1 kV= 7.19976905311778  XFKVA=50.000000 PF= 0.98  kWh=9.067000 NumCust=2.000000 ! KW= 12.092012 
New Load.263511718_2 Phases= 1  Bus1=263511718.2 kV= 7.19976905311778  XFKVA=50.000000 PF= 0.98  kWh=9.067000 NumCust=0.000000 ! KW= 8.96302 
New Load.263511718_3 Phases= 1  Bus1=263511718.3 kV= 7.19976905311778  XFKVA=50.000000 PF= 0.98  kWh=9.067000 NumCust=0.000000 ! KW= 11.551748 
New Load.259004985_3 Phases= 1  Bus1=259004985.3 kV= 7.19976905311778  XFKVA=50.000000 PF= 0.98  kWh=3.000000 NumCust=1.000000 ! KW= 11.551748 
New Load.263701621_3 Phases= 1  Bus1=263701621.3 kV= 7.19976905311778  XFKVA=50.000000 PF= 0.98  kWh=57.000000 NumCust=5.000000 ! KW= 11.551748 
New Load.258850660_2 Phases= 1  Bus1=258850660.2 kV= 7.19976905311778  XFKVA=10.000000 PF= 0.98  NumCust=0.000000 ! KW= 1.792604 
New Load.258840462_1 Phases= 1  Bus1=258840462.1 kV= 7.19976905311778  XFKVA=25.000000 PF= 0.98  kWh=9.267000 NumCust=1.000000 ! KW= 6.046006 
New Load.258840462_2 Phases= 1  Bus1=258840462.2 kV= 7.19976905311778  XFKVA=25.000000 PF= 0.98  kWh=9.267000 NumCust=0.000000 ! KW= 4.48151 
New Load.258840462_3 Phases= 1  Bus1=258840462.3 kV= 7.19976905311778  XFKVA=25.000000 PF= 0.98  kWh=9.267000 NumCust=0.000000 ! KW= 5.775874 
New Load.258839871_2 Phases= 1  Bus1=258839871.2 kV= 7.19976905311778  XFKVA=15.000000 PF= 0.98  NumCust=0.000000 ! KW= 2.688906 
New Load.258850618_3 Phases= 1  Bus1=258850618.3 kV= 7.19976905311778  XFKVA=25.000000 PF= 0.98  NumCust=0.000000 ! KW= 5.775874 
New Load.263701603_2 Phases= 1  Bus1=263701603.2 kV= 7.19976905311778  XFKVA=50.000000 PF= 0.98  kWh=23.000000 NumCust=2.000000 ! KW= 8.96302 
New Load.263565077_3 Phases= 1  Bus1=263565077.3 kV= 7.19976905311778  XFKVA=75.000000 PF= 0.98  kWh=93.000000 NumCust=9.000000 ! KW= 17.327622 
New Load.264494246_3 Phases= 1  Bus1=264494246.3 kV= 7.19976905311778  XFKVA=25.000000 PF= 0.98  NumCust=0.000000 ! KW= 5.775874 
New Load.258850638_3 Phases= 1  Bus1=258850638.3 kV= 7.19976905311778  XFKVA=25.000000 PF= 0.98  NumCust=0.000000 ! KW= 5.775874 
New Load.258850765_1 Phases= 1  Bus1=258850765.1 kV= 7.19976905311778  XFKVA=50.000000 PF= 0.98  kWh=39.830000 NumCust=3.000000 ! KW= 12.092012 
New Load.258850765_2 Phases= 1  Bus1=258850765.2 kV= 7.19976905311778  XFKVA=50.000000 PF= 0.98  kWh=39.830000 NumCust=0.000000 ! KW= 8.96302 
New Load.258850765_3 Phases= 1  Bus1=258850765.3 kV= 7.19976905311778  XFKVA=50.000000 PF= 0.98  kWh=39.830000 NumCust=0.000000 ! KW= 11.551748 
New Load.260745311_1 Phases= 1  Bus1=260745311.1 kV= 7.19976905311778  XFKVA=250.000000 PF= 0.98  kWh=90.240000 NumCust=1.000000 ! KW= 90.24 
New Load.260745311_2 Phases= 1  Bus1=260745311.2 kV= 7.19976905311778  XFKVA=250.000000 PF= 0.98  kWh=90.240000 NumCust=0.000000 ! KW= 90.24 
New Load.260745311_3 Phases= 1  Bus1=260745311.3 kV= 7.19976905311778  XFKVA=250.000000 PF= 0.98  kWh=90.240000 NumCust=0.000000 ! KW= 90.24 
New Load.258839854_2 Phases= 1  Bus1=258839854.2 kV= 7.19976905311778  XFKVA=25.000000 PF= 0.98  kWh=5.000000 NumCust=3.000000 ! KW= 4.48151 
New Load.263565086_1 Phases= 1  Bus1=263565086.1 kV= 7.19976905311778  XFKVA=75.000000 PF= 0.98  kWh=5.760000 NumCust=1.000000 ! KW= 18.138019 
New Load.263565086_2 Phases= 1  Bus1=263565086.2 kV= 7.19976905311778  XFKVA=75.000000 PF= 0.98  kWh=5.760000 NumCust=0.000000 ! KW= 13.444529 
New Load.263565086_3 Phases= 1  Bus1=263565086.3 kV= 7.19976905311778  XFKVA=75.000000 PF= 0.98  kWh=5.760000 NumCust=0.000000 ! KW= 17.327622 
New Load.258839840_3 Phases= 1  Bus1=258839840.3 kV= 7.19976905311778  XFKVA=10.000000 PF= 0.98  kWh=16.350000 NumCust=0.000000 ! KW= 2.31035 
New Load.258839840_1 Phases= 1  Bus1=258839840.1 kV= 7.19976905311778  XFKVA=10.000000 PF= 0.98  kWh=16.350000 NumCust=4.000000 ! KW= 2.418402 
New Load.258839840_2 Phases= 1  Bus1=258839840.2 kV= 7.19976905311778  XFKVA=10.000000 PF= 0.98  kWh=16.350000 NumCust=0.000000 ! KW= 1.792604 
New Load.258840257_3 Phases= 1  Bus1=258840257.3 kV= 7.19976905311778  XFKVA=10.000000 PF= 0.98  NumCust=1.000000 ! KW= 2.31035 
New Load.258850559_1 Phases= 1  Bus1=258850559.1 kV= 7.19976905311778  XFKVA=25.000000 PF= 0.98  NumCust=0.000000 ! KW= 6.046006 
New Load.258839948_3 Phases= 1  Bus1=258839948.3 kV= 7.19976905311778  XFKVA=10.000000 PF= 0.98  kWh=12.000000 NumCust=1.000000 ! KW= 2.31035 
New Load.258840365_1 Phases= 1  Bus1=258840365.1 kV= 7.19976905311778  XFKVA=25.000000 PF= 0.98  NumCust=1.000000 ! KW= 6.046006 
New Load.258840365_2 Phases= 1  Bus1=258840365.2 kV= 7.19976905311778  XFKVA=25.000000 PF= 0.98  NumCust=0.000000 ! KW= 4.48151 
New Load.258840365_3 Phases= 1  Bus1=258840365.3 kV= 7.19976905311778  XFKVA=25.000000 PF= 0.98  NumCust=0.000000 ! KW= 5.775874 
New Load.258851452_1 Phases= 1  Bus1=258851452.1 kV= 7.19976905311778  XFKVA=100.000000 PF= 0.98  kWh=56.000000 NumCust=1.000000 ! KW= 56 
New Load.258851452_2 Phases= 1  Bus1=258851452.2 kV= 7.19976905311778  XFKVA=100.000000 PF= 0.98  kWh=56.000000 NumCust=0.000000 ! KW= 56 
New Load.258851452_3 Phases= 1  Bus1=258851452.3 kV= 7.19976905311778  XFKVA=100.000000 PF= 0.98  kWh=56.000000 NumCust=0.000000 ! KW= 56 
New Load.258840242_1 Phases= 1  Bus1=258840242.1 kV= 7.19976905311778  XFKVA=25.000000 PF= 0.98  kWh=17.200000 NumCust=1.000000 ! KW= 6.046006 
New Load.258840425_3 Phases= 1  Bus1=258840425.3 kV= 7.19976905311778  XFKVA=25.000000 PF= 0.98  kWh=48.000000 NumCust=6.000000 ! KW= 5.775874 
New Load.264494199_1 Phases= 1  Bus1=264494199.1 kV= 7.19976905311778  XFKVA=25.000000 PF= 0.98  kWh=5.333000 NumCust=1.000000 ! KW= 6.046006 
New Load.264494199_2 Phases= 1  Bus1=264494199.2 kV= 7.19976905311778  XFKVA=25.000000 PF= 0.98  kWh=5.333000 NumCust=0.000000 ! KW= 4.48151 
New Load.264494199_3 Phases= 1  Bus1=264494199.3 kV= 7.19976905311778  XFKVA=25.000000 PF= 0.98  kWh=5.333000 NumCust=0.000000 ! KW= 5.775874 
New Load.258850544_1 Phases= 1  Bus1=258850544.1 kV= 7.19976905311778  XFKVA=50.000000 PF= 0.98  NumCust=0.000000 ! KW= 12.092012 
New Load.258850544_2 Phases= 1  Bus1=258850544.2 kV= 7.19976905311778  XFKVA=50.000000 PF= 0.98  NumCust=0.000000 ! KW= 8.96302 
New Load.258850544_3 Phases= 1  Bus1=258850544.3 kV= 7.19976905311778  XFKVA=50.000000 PF= 0.98  NumCust=0.000000 ! KW= 11.551748 
New Load.258850537_1 Phases= 1  Bus1=258850537.1 kV= 7.19976905311778  XFKVA=10.000000 PF= 0.98  kWh=0.300000 NumCust=1.000000 ! KW= 2.418402 
New Load.258850537_2 Phases= 1  Bus1=258850537.2 kV= 7.19976905311778  XFKVA=10.000000 PF= 0.98  kWh=0.300000 NumCust=0.000000 ! KW= 1.792604 
New Load.258850537_3 Phases= 1  Bus1=258850537.3 kV= 7.19976905311778  XFKVA=10.000000 PF= 0.98  kWh=0.300000 NumCust=0.000000 ! KW= 2.31035 
New Load.258850725_2 Phases= 1  Bus1=258850725.2 kV= 7.19976905311778  XFKVA=10.000000 PF= 0.98  NumCust=0.000000 ! KW= 1.792604 
New Load.258840479_3 Phases= 1  Bus1=258840479.3 kV= 7.19976905311778  XFKVA=25.000000 PF= 0.98  NumCust=0.000000 ! KW= 5.775874 
New Load.258840398_3 Phases= 1  Bus1=258840398.3 kV= 7.19976905311778  XFKVA=50.000000 PF= 0.98  kWh=95.000000 NumCust=9.000000 ! KW= 11.551748 
New Load.258851437_2 Phases= 1  Bus1=258851437.2 kV= 7.19976905311778  XFKVA=25.000000 PF= 0.98  kWh=25.000000 NumCust=2.000000 ! KW= 4.48151 
New Load.263714477_1 Phases= 1  Bus1=263714477.1 kV= 7.19976905311778  XFKVA=15.000000 PF= 0.98  NumCust=0.000000 ! KW= 3.627604 
New Load.258839911_1 Phases= 1  Bus1=258839911.1 kV= 7.19976905311778  XFKVA=25.000000 PF= 0.98  kWh=9.267000 NumCust=2.000000 ! KW= 6.046006 
New Load.258839911_2 Phases= 1  Bus1=258839911.2 kV= 7.19976905311778  XFKVA=25.000000 PF= 0.98  kWh=9.267000 NumCust=0.000000 ! KW= 4.48151 
New Load.258839911_3 Phases= 1  Bus1=258839911.3 kV= 7.19976905311778  XFKVA=25.000000 PF= 0.98  kWh=9.267000 NumCust=0.000000 ! KW= 5.775874 
New Load.258840164_1 Phases= 1  Bus1=258840164.1 kV= 7.19976905311778  XFKVA=25.000000 PF= 0.98  kWh=4.533000 NumCust=1.000000 ! KW= 6.046006 
New Load.258840164_2 Phases= 1  Bus1=258840164.2 kV= 7.19976905311778  XFKVA=25.000000 PF= 0.98  kWh=4.533000 NumCust=0.000000 ! KW= 4.48151 
New Load.258840164_3 Phases= 1  Bus1=258840164.3 kV= 7.19976905311778  XFKVA=25.000000 PF= 0.98  kWh=4.533000 NumCust=0.000000 ! KW= 5.775874 
New Load.263515057_2 Phases= 1  Bus1=263515057.2 kV= 7.19976905311778  XFKVA=75.000000 PF= 0.98  kWh=60.000000 NumCust=6.000000 ! KW= 13.444529 
New Load.466987565_1 Phases= 1  Bus1=466987565.1 kV= 7.19976905311778  XFKVA=50.000000 PF= 0.98  kWh=5.120000 NumCust=1.000000 ! KW= 12.092012 
New Load.466987565_2 Phases= 1  Bus1=466987565.2 kV= 7.19976905311778  XFKVA=50.000000 PF= 0.98  kWh=5.120000 NumCust=0.000000 ! KW= 8.96302 
New Load.466987565_3 Phases= 1  Bus1=466987565.3 kV= 7.19976905311778  XFKVA=50.000000 PF= 0.98  kWh=5.120000 NumCust=0.000000 ! KW= 11.551748 
New Load.263515066_3 Phases= 1  Bus1=263515066.3 kV= 7.19976905311778  XFKVA=75.000000 PF= 0.98  kWh=57.000000 NumCust=6.000000 ! KW= 17.327622 
New Load.258851360_1 Phases= 1  Bus1=258851360.1 kV= 7.19976905311778  XFKVA=50.000000 PF= 0.98  kWh=83.000000 NumCust=7.000000 ! KW= 12.092012 
New Load.258851417_1 Phases= 1  Bus1=258851417.1 kV= 7.19976905311778  XFKVA=25.000000 PF= 0.98  kWh=55.000000 NumCust=6.000000 ! KW= 6.046006 
New Load.258840142_1 Phases= 1  Bus1=258840142.1 kV= 7.19976905311778  XFKVA=166.700000 PF= 0.98  NumCust=0.000000 ! KW= 0 
New Load.258840142_2 Phases= 1  Bus1=258840142.2 kV= 7.19976905311778  XFKVA=166.700000 PF= 0.98  NumCust=0.000000 ! KW= 0 
New Load.258840142_3 Phases= 1  Bus1=258840142.3 kV= 7.19976905311778  XFKVA=166.700000 PF= 0.98  NumCust=0.000000 ! KW= 0 
New Load.258851237_3 Phases= 1  Bus1=258851237.3 kV= 7.19976905311778  XFKVA=25.000000 PF= 0.98  kWh=2.000000 NumCust=1.000000 ! KW= 5.775874 
New Load.264494181_1 Phases= 1  Bus1=264494181.1 kV= 7.19976905311778  XFKVA=25.000000 PF= 0.98  NumCust=0.000000 ! KW= 6.046006 
New Load.264494181_2 Phases= 1  Bus1=264494181.2 kV= 7.19976905311778  XFKVA=25.000000 PF= 0.98  NumCust=0.000000 ! KW= 4.48151 
New Load.264494181_3 Phases= 1  Bus1=264494181.3 kV= 7.19976905311778  XFKVA=25.000000 PF= 0.98  NumCust=0.000000 ! KW= 5.775874 
New Load.263515165_1 Phases= 1  Bus1=263515165.1 kV= 7.19976905311778  XFKVA=250.000000 PF= 0.98  kWh=66.670000 NumCust=1.000000 ! KW= 66.67 
New Load.263515165_2 Phases= 1  Bus1=263515165.2 kV= 7.19976905311778  XFKVA=250.000000 PF= 0.98  kWh=66.670000 NumCust=0.000000 ! KW= 66.67 
New Load.263515165_3 Phases= 1  Bus1=263515165.3 kV= 7.19976905311778  XFKVA=250.000000 PF= 0.98  kWh=66.670000 NumCust=0.000000 ! KW= 66.67 
New Load.258851343_3 Phases= 1  Bus1=258851343.3 kV= 7.19976905311778  XFKVA=25.000000 PF= 0.98  kWh=25.000000 NumCust=4.000000 ! KW= 5.775874 
New Load.258840302_2 Phases= 1  Bus1=258840302.2 kV= 7.19976905311778  XFKVA=25.000000 PF= 0.98  kWh=10.000000 NumCust=1.000000 ! KW= 4.48151 
New Load.258851402_2 Phases= 1  Bus1=258851402.2 kV= 7.19976905311778  XFKVA=50.000000 PF= 0.98  kWh=79.000000 NumCust=8.000000 ! KW= 8.96302 
New Load.258840297_2 Phases= 1  Bus1=258840297.2 kV= 7.19976905311778  XFKVA=10.000000 PF= 0.98  kWh=11.000000 NumCust=1.000000 ! KW= 1.792604 
New Load.259121514_1 Phases= 1  Bus1=259121514.1 kV= 7.19976905311778  XFKVA=15.000000 PF= 0.98  kWh=9.200000 NumCust=1.000000 ! KW= 3.627604 
New Load.259121514_2 Phases= 1  Bus1=259121514.2 kV= 7.19976905311778  XFKVA=15.000000 PF= 0.98  kWh=9.200000 NumCust=0.000000 ! KW= 2.688906 
New Load.259121514_3 Phases= 1  Bus1=259121514.3 kV= 7.19976905311778  XFKVA=15.000000 PF= 0.98  kWh=9.200000 NumCust=0.000000 ! KW= 3.465524 
New Load.258851397_2 Phases= 1  Bus1=258851397.2 kV= 7.19976905311778  XFKVA=25.000000 PF= 0.98  kWh=74.000000 NumCust=8.000000 ! KW= 4.48151 
New Load.258851476_1 Phases= 1  Bus1=258851476.1 kV= 7.19976905311778  XFKVA=25.000000 PF= 0.98  NumCust=0.000000 ! KW= 6.046006 
New Load.258851476_2 Phases= 1  Bus1=258851476.2 kV= 7.19976905311778  XFKVA=25.000000 PF= 0.98  NumCust=0.000000 ! KW= 4.48151 
New Load.258851476_3 Phases= 1  Bus1=258851476.3 kV= 7.19976905311778  XFKVA=25.000000 PF= 0.98  NumCust=0.000000 ! KW= 5.775874 
New Load.258840122_2 Phases= 1  Bus1=258840122.2 kV= 7.19976905311778  XFKVA=25.000000 PF= 0.98  kWh=22.000000 NumCust=3.000000 ! KW= 4.48151 
New Load.258840079_2 Phases= 1  Bus1=258840079.2 kV= 7.19976905311778  XFKVA=25.000000 PF= 0.98  kWh=3.000000 NumCust=2.000000 ! KW= 4.48151 
New Load.263515138_1 Phases= 1  Bus1=263515138.1 kV= 7.19976905311778  XFKVA=25.000000 PF= 0.98  kWh=24.000000 NumCust=2.000000 ! KW= 6.046006 
New Load.460932520_1 Phases= 1  Bus1=460932520.1 kV= 7.19976905311778  XFKVA=50.000000 PF= 0.98  kWh=13.000000 NumCust=1.000000 ! KW= 12.092012 
New Load.258840032_1 Phases= 1  Bus1=258840032.1 kV= 7.19976905311778  XFKVA=10.000000 PF= 0.98  kWh=2.667000 NumCust=1.000000 ! KW= 2.418402 
New Load.258840032_2 Phases= 1  Bus1=258840032.2 kV= 7.19976905311778  XFKVA=10.000000 PF= 0.98  kWh=2.667000 NumCust=0.000000 ! KW= 1.792604 
New Load.258840032_3 Phases= 1  Bus1=258840032.3 kV= 7.19976905311778  XFKVA=10.000000 PF= 0.98  kWh=2.667000 NumCust=0.000000 ! KW= 2.31035 
New Load.263815483_1 Phases= 1  Bus1=263815483.1 kV= 7.19976905311778  XFKVA=25.000000 PF= 0.98  kWh=40.000000 NumCust=3.000000 ! KW= 6.046006 
New Load.258851323_3 Phases= 1  Bus1=258851323.3 kV= 7.19976905311778  XFKVA=50.000000 PF= 0.98  kWh=78.700000 NumCust=4.000000 ! KW= 11.551748 
New Load.260745346_1 Phases= 1  Bus1=260745346.1 kV= 7.19976905311778  XFKVA=250.000000 PF= 0.98  NumCust=0.000000 ! KW= 0 
New Load.260745346_2 Phases= 1  Bus1=260745346.2 kV= 7.19976905311778  XFKVA=250.000000 PF= 0.98  NumCust=0.000000 ! KW= 0 
New Load.260745346_3 Phases= 1  Bus1=260745346.3 kV= 7.19976905311778  XFKVA=250.000000 PF= 0.98  NumCust=0.000000 ! KW= 0 
New Load.258851283_1 Phases= 1  Bus1=258851283.1 kV= 7.19976905311778  XFKVA=15.000000 PF= 0.98  NumCust=0.000000 ! KW= 3.627604 
New Load.258851202_1 Phases= 1  Bus1=258851202.1 kV= 7.19976905311778  XFKVA=10.000000 PF= 0.98  NumCust=0.000000 ! KW= 2.418402 
New Load.258851202_2 Phases= 1  Bus1=258851202.2 kV= 7.19976905311778  XFKVA=10.000000 PF= 0.98  NumCust=0.000000 ! KW= 1.792604 
New Load.258851202_3 Phases= 1  Bus1=258851202.3 kV= 7.19976905311778  XFKVA=10.000000 PF= 0.98  NumCust=0.000000 ! KW= 2.31035 
New Load.263515120_1 Phases= 1  Bus1=263515120.1 kV= 7.19976905311778  XFKVA=75.000000 PF= 0.98  kWh=46.000000 NumCust=5.000000 ! KW= 18.138019 
New Load.258851197_1 Phases= 1  Bus1=258851197.1 kV= 7.19976905311778  XFKVA=10.000000 PF= 0.98  NumCust=0.000000 ! KW= 2.418402 
New Load.258851197_2 Phases= 1  Bus1=258851197.2 kV= 7.19976905311778  XFKVA=10.000000 PF= 0.98  NumCust=0.000000 ! KW= 1.792604 
New Load.258851197_3 Phases= 1  Bus1=258851197.3 kV= 7.19976905311778  XFKVA=10.000000 PF= 0.98  NumCust=0.000000 ! KW= 2.31035 
New Load.258851278_1 Phases= 1  Bus1=258851278.1 kV= 7.19976905311778  XFKVA=25.000000 PF= 0.98  NumCust=0.000000 ! KW= 6.046006 
New Load.258851278_2 Phases= 1  Bus1=258851278.2 kV= 7.19976905311778  XFKVA=25.000000 PF= 0.98  NumCust=0.000000 ! KW= 4.48151 
New Load.258851278_3 Phases= 1  Bus1=258851278.3 kV= 7.19976905311778  XFKVA=25.000000 PF= 0.98  NumCust=0.000000 ! KW= 5.775874 
New Load.258851019_2 Phases= 1  Bus1=258851019.2 kV= 7.19976905311778  XFKVA=50.000000 PF= 0.98  kWh=66.230000 NumCust=4.000000 ! KW= 8.96302 
New Load.258851145_1 Phases= 1  Bus1=258851145.1 kV= 7.19976905311778  XFKVA=25.000000 PF= 0.98  kWh=26.000000 NumCust=3.000000 ! KW= 6.046006 
New Load.263515003_1 Phases= 1  Bus1=263515003.1 kV= 7.19976905311778  XFKVA=75.000000 PF= 0.98  kWh=47.470000 NumCust=1.000000 ! KW= 18.138019 
New Load.263515003_2 Phases= 1  Bus1=263515003.2 kV= 7.19976905311778  XFKVA=75.000000 PF= 0.98  kWh=47.470000 NumCust=0.000000 ! KW= 13.444529 
New Load.263515003_3 Phases= 1  Bus1=263515003.3 kV= 7.19976905311778  XFKVA=75.000000 PF= 0.98  kWh=47.470000 NumCust=0.000000 ! KW= 17.327622 
New Load.263515084_3 Phases= 1  Bus1=263515084.3 kV= 7.19976905311778  XFKVA=25.000000 PF= 0.98  kWh=7.000000 NumCust=1.000000 ! KW= 5.775874 
New Load.258851382_1 Phases= 1  Bus1=258851382.1 kV= 7.19976905311778  XFKVA=25.000000 PF= 0.98  kWh=32.000000 NumCust=4.000000 ! KW= 6.046006 
New Load.258851298_1 Phases= 1  Bus1=258851298.1 kV= 7.19976905311778  XFKVA=25.000000 PF= 0.98  NumCust=0.000000 ! KW= 6.046006 
New Load.258851298_2 Phases= 1  Bus1=258851298.2 kV= 7.19976905311778  XFKVA=25.000000 PF= 0.98  NumCust=0.000000 ! KW= 4.48151 
New Load.258851298_3 Phases= 1  Bus1=258851298.3 kV= 7.19976905311778  XFKVA=25.000000 PF= 0.98  NumCust=0.000000 ! KW= 5.775874 
New Load.258851377_1 Phases= 1  Bus1=258851377.1 kV= 7.19976905311778  XFKVA=25.000000 PF= 0.98  kWh=71.000000 NumCust=6.000000 ! KW= 6.046006 
New Load.258851123_3 Phases= 1  Bus1=258851123.3 kV= 7.19976905311778  XFKVA=25.000000 PF= 0.98  kWh=44.000000 NumCust=4.000000 ! KW= 5.775874 
New Load.258850999_1 Phases= 1  Bus1=258850999.1 kV= 7.19976905311778  XFKVA=50.000000 PF= 0.98  kWh=20.000000 NumCust=2.000000 ! KW= 12.092012 
New Load.258850999_2 Phases= 1  Bus1=258850999.2 kV= 7.19976905311778  XFKVA=50.000000 PF= 0.98  kWh=20.000000 NumCust=0.000000 ! KW= 8.96302 
New Load.258850999_3 Phases= 1  Bus1=258850999.3 kV= 7.19976905311778  XFKVA=50.000000 PF= 0.98  kWh=20.000000 NumCust=0.000000 ! KW= 11.551748 
New Load.258851079_2 Phases= 1  Bus1=258851079.2 kV= 7.19976905311778  XFKVA=25.000000 PF= 0.98  kWh=23.000000 NumCust=2.000000 ! KW= 4.48151 
New Load.472684459_1 Phases= 1  Bus1=472684459.1 kV= 7.19976905311778  XFKVA=50.000000 PF= 0.98  kWh=1.667000 NumCust=1.000000 ! KW= 12.092012 
New Load.472684459_2 Phases= 1  Bus1=472684459.2 kV= 7.19976905311778  XFKVA=50.000000 PF= 0.98  kWh=1.667000 NumCust=0.000000 ! KW= 8.96302 
New Load.472684459_3 Phases= 1  Bus1=472684459.3 kV= 7.19976905311778  XFKVA=50.000000 PF= 0.98  kWh=1.667000 NumCust=0.000000 ! KW= 11.551748 
New Load.259004984_2 Phases= 1  Bus1=259004984.2 kV= 7.19976905311778  XFKVA=50.000000 PF= 0.98  kWh=66.000000 NumCust=6.000000 ! KW= 8.96302 
New Load.261124294_1 Phases= 1  Bus1=261124294.1 kV= 7.19976905311778  XFKVA=250.000000 PF= 0.98  NumCust=0.000000 ! KW= 0 
New Load.261124294_2 Phases= 1  Bus1=261124294.2 kV= 7.19976905311778  XFKVA=250.000000 PF= 0.98  NumCust=0.000000 ! KW= 0 
New Load.261124294_3 Phases= 1  Bus1=261124294.3 kV= 7.19976905311778  XFKVA=250.000000 PF= 0.98  NumCust=0.000000 ! KW= 0 
New Load.263514859_1 Phases= 1  Bus1=263514859.1 kV= 7.19976905311778  XFKVA=50.000000 PF= 0.98  kWh=6.133000 NumCust=1.000000 ! KW= 12.092012 
New Load.263514859_2 Phases= 1  Bus1=263514859.2 kV= 7.19976905311778  XFKVA=50.000000 PF= 0.98  kWh=6.133000 NumCust=0.000000 ! KW= 8.96302 
New Load.263514859_3 Phases= 1  Bus1=263514859.3 kV= 7.19976905311778  XFKVA=50.000000 PF= 0.98  kWh=6.133000 NumCust=0.000000 ! KW= 11.551748 
New Load.258851103_2 Phases= 1  Bus1=258851103.2 kV= 7.19976905311778  XFKVA=25.000000 PF= 0.98  kWh=37.000000 NumCust=4.000000 ! KW= 4.48151 
New Load.258851180_1 Phases= 1  Bus1=258851180.1 kV= 7.19976905311778  XFKVA=25.000000 PF= 0.98  kWh=75.000000 NumCust=5.000000 ! KW= 6.046006 
New Load.261124314_1 Phases= 1  Bus1=261124314.1 kV= 7.19976905311778  XFKVA=50.000000 PF= 0.98  NumCust=0.000000 ! KW= 12.092012 
New Load.261124314_2 Phases= 1  Bus1=261124314.2 kV= 7.19976905311778  XFKVA=50.000000 PF= 0.98  NumCust=0.000000 ! KW= 8.96302 
New Load.261124314_3 Phases= 1  Bus1=261124314.3 kV= 7.19976905311778  XFKVA=50.000000 PF= 0.98  NumCust=0.000000 ! KW= 11.551748 
New Load.472684499_1 Phases= 1  Bus1=472684499.1 kV= 7.19976905311778  XFKVA=250.000000 PF= 0.98  kWh=63.000000 NumCust=2.000000 ! KW= 63 
New Load.472684499_2 Phases= 1  Bus1=472684499.2 kV= 7.19976905311778  XFKVA=250.000000 PF= 0.98  kWh=63.000000 NumCust=0.000000 ! KW= 63 
New Load.472684499_3 Phases= 1  Bus1=472684499.3 kV= 7.19976905311778  XFKVA=250.000000 PF= 0.98  kWh=63.000000 NumCust=0.000000 ! KW= 63 
New Load.258851180-2_1 Phases= 1  Bus1=258851180.1 kV= 7.19976905311778  XFKVA=10.000000 PF= 0.98  kWh=1.667000 NumCust=1.000000 ! KW= 2.418402 
New Load.258851180_2 Phases= 1  Bus1=258851180.2 kV= 7.19976905311778  XFKVA=10.000000 PF= 0.98  kWh=1.667000 NumCust=0.000000 ! KW= 1.792604 
New Load.258851180_3 Phases= 1  Bus1=258851180.3 kV= 7.19976905311778  XFKVA=10.000000 PF= 0.98  kWh=1.667000 NumCust=0.000000 ! KW= 2.31035 
New Load.261124288_1 Phases= 1  Bus1=261124288.1 kV= 7.19976905311778  XFKVA=500.000000 PF= 0.98  NumCust=0.000000 ! KW= 0 
New Load.261124288_2 Phases= 1  Bus1=261124288.2 kV= 7.19976905311778  XFKVA=500.000000 PF= 0.98  NumCust=0.000000 ! KW= 0 
New Load.261124288_3 Phases= 1  Bus1=261124288.3 kV= 7.19976905311778  XFKVA=500.000000 PF= 0.98  NumCust=0.000000 ! KW= 0 
New Load.263514841_1 Phases= 1  Bus1=263514841.1 kV= 7.19976905311778  XFKVA=50.000000 PF= 0.98  kWh=29.870000 NumCust=2.000000 ! KW= 12.092012 
New Load.263514841_2 Phases= 1  Bus1=263514841.2 kV= 7.19976905311778  XFKVA=50.000000 PF= 0.98  kWh=29.870000 NumCust=0.000000 ! KW= 8.96302 
New Load.263514841_3 Phases= 1  Bus1=263514841.3 kV= 7.19976905311778  XFKVA=50.000000 PF= 0.98  kWh=29.870000 NumCust=0.000000 ! KW= 11.551748 
New Load.258850960_1 Phases= 1  Bus1=258850960.1 kV= 7.19976905311778  XFKVA=25.000000 PF= 0.98  NumCust=0.000000 ! KW= 6.046006 
New Load.258850960_2 Phases= 1  Bus1=258850960.2 kV= 7.19976905311778  XFKVA=25.000000 PF= 0.98  NumCust=0.000000 ! KW= 4.48151 
New Load.258850960_3 Phases= 1  Bus1=258850960.3 kV= 7.19976905311778  XFKVA=25.000000 PF= 0.98  NumCust=0.000000 ! KW= 5.775874 
New Load.288683093_1 Phases= 1  Bus1=288683093.1 kV= 7.19976905311778  XFKVA=1534.000000 PF= 0.98  kWh=217.200000 NumCust=1.000000 ! KW= 217.2 
New Load.288683093_2 Phases= 1  Bus1=288683093.2 kV= 7.19976905311778  XFKVA=1533.000000 PF= 0.98  kWh=217.200000 NumCust=0.000000 ! KW= 217.2 
New Load.288683093_3 Phases= 1  Bus1=288683093.3 kV= 7.19976905311778  XFKVA=1533.000000 PF= 0.98  kWh=217.200000 NumCust=0.000000 ! KW= 217.2 
New Load.260784275_3 Phases= 1  Bus1=260784275.3 kV= 7.19976905311778  XFKVA=50.000000 PF= 0.98  kWh=84.000000 NumCust=13.000000 ! KW= 11.551748 
New Load.258840361_3 Phases= 1  Bus1=258840361.3 kV= 7.19976905311778  XFKVA=25.000000 PF= 0.98  NumCust=0.000000 ! KW= 5.775874 
New Load.261002775_1 Phases= 1  Bus1=261002775.1 kV= 7.19976905311778  XFKVA=50.000000 PF= 0.98  kWh=38.000000 NumCust=4.000000 ! KW= 12.092012 
New Load.264516154_2 Phases= 1  Bus1=264516154.2 kV= 7.19976905311778  XFKVA=10.000000 PF= 0.98  kWh=5.000000 NumCust=2.000000 ! KW= 1.792604 
New Load.258850941_1 Phases= 1  Bus1=258850941.1 kV= 7.19976905311778  XFKVA=100.000000 PF= 0.98  NumCust=1.000000 ! KW= 0 
New Load.258850941_2 Phases= 1  Bus1=258850941.2 kV= 7.19976905311778  XFKVA=100.000000 PF= 0.98  NumCust=0.000000 ! KW= 0 
New Load.258850941_3 Phases= 1  Bus1=258850941.3 kV= 7.19976905311778  XFKVA=100.000000 PF= 0.98  NumCust=0.000000 ! KW= 0 
New Load.258850975_2 Phases= 1  Bus1=258850975.2 kV= 7.19976905311778  XFKVA=10.000000 PF= 0.98  NumCust=0.000000 ! KW= 1.792604 
New Load.263514877_1 Phases= 1  Bus1=263514877.1 kV= 7.19976905311778  XFKVA=250.000000 PF= 0.98  kWh=25.070000 NumCust=2.000000 ! KW= 25.07 
New Load.263514877_2 Phases= 1  Bus1=263514877.2 kV= 7.19976905311778  XFKVA=250.000000 PF= 0.98  kWh=25.070000 NumCust=0.000000 ! KW= 25.07 
New Load.263514877_3 Phases= 1  Bus1=263514877.3 kV= 7.19976905311778  XFKVA=250.000000 PF= 0.98  kWh=25.070000 NumCust=0.000000 ! KW= 25.07 
New Load.260784255_3 Phases= 1  Bus1=260784255.3 kV= 7.19976905311778  XFKVA=75.000000 PF= 0.98  kWh=71.000000 NumCust=9.000000 ! KW= 17.327622 
New Load.260972125_3 Phases= 1  Bus1=260972125.3 kV= 7.19976905311778  XFKVA=75.000000 PF= 0.98  kWh=92.000000 NumCust=8.000000 ! KW= 17.327622 
New Load.263514805_1 Phases= 1  Bus1=263514805.1 kV= 7.19976905311778  XFKVA=100.000000 PF= 0.98  kWh=62.130000 NumCust=2.000000 ! KW= 62.13 
New Load.263514805_2 Phases= 1  Bus1=263514805.2 kV= 7.19976905311778  XFKVA=100.000000 PF= 0.98  kWh=62.130000 NumCust=0.000000 ! KW= 62.13 
New Load.263514805_3 Phases= 1  Bus1=263514805.3 kV= 7.19976905311778  XFKVA=100.000000 PF= 0.98  kWh=62.130000 NumCust=0.000000 ! KW= 62.13 
New Load.263514886_2 Phases= 1  Bus1=263514886.2 kV= 7.19976905311778  XFKVA=100.000000 PF= 0.98  kWh=74.930000 NumCust=0.000000 ! KW= 74.93 
New Load.263514886_3 Phases= 1  Bus1=263514886.3 kV= 7.19976905311778  XFKVA=100.000000 PF= 0.98  kWh=74.930000 NumCust=0.000000 ! KW= 74.93 
New Load.263514886_1 Phases= 1  Bus1=263514886.1 kV= 7.19976905311778  XFKVA=100.000000 PF= 0.98  kWh=74.930000 NumCust=1.000000 ! KW= 74.93 
New Load.260784250_3 Phases= 1  Bus1=260784250.3 kV= 7.19976905311778  XFKVA=75.000000 PF= 0.98  kWh=103.000000 NumCust=10.000000 ! KW= 17.327622 
New Load.261002751_1 Phases= 1  Bus1=261002751.1 kV= 7.19976905311778  XFKVA=50.000000 PF= 0.98  kWh=101.000000 NumCust=9.000000 ! KW= 12.092012 
New Load.460932563_3 Phases= 1  Bus1=460932563.3 kV= 7.19976905311778  XFKVA=25.000000 PF= 0.98  NumCust=0.000000 ! KW= 5.775874 
New Load.258850917_1 Phases= 1  Bus1=258850917.1 kV= 7.19976905311778  XFKVA=50.000000 PF= 0.98  kWh=223.800000 NumCust=2.000000 ! KW= 12.092012 
New Load.258850917_2 Phases= 1  Bus1=258850917.2 kV= 7.19976905311778  XFKVA=50.000000 PF= 0.98  kWh=223.800000 NumCust=0.000000 ! KW= 8.96302 
New Load.258850917_3 Phases= 1  Bus1=258850917.3 kV= 7.19976905311778  XFKVA=50.000000 PF= 0.98  kWh=223.800000 NumCust=0.000000 ! KW= 11.551748 
New Load.260972085_3 Phases= 1  Bus1=260972085.3 kV= 7.19976905311778  XFKVA=50.000000 PF= 0.98  kWh=41.000000 NumCust=5.000000 ! KW= 11.551748 
New Load.263514904_1 Phases= 1  Bus1=263514904.1 kV= 7.19976905311778  XFKVA=666.700000 PF= 0.98  kWh=632.000000 NumCust=1.000000 ! KW= 632 
New Load.263514904_2 Phases= 1  Bus1=263514904.2 kV= 7.19976905311778  XFKVA=666.700000 PF= 0.98  kWh=632.000000 NumCust=0.000000 ! KW= 632 
New Load.263514904_3 Phases= 1  Bus1=263514904.3 kV= 7.19976905311778  XFKVA=666.700000 PF= 0.98  kWh=632.000000 NumCust=0.000000 ! KW= 632 
New Load.261002756_1 Phases= 1  Bus1=261002756.1 kV= 7.19976905311778  XFKVA=50.000000 PF= 0.98  kWh=94.000000 NumCust=8.000000 ! KW= 12.092012 
New Load.259005036_1 Phases= 1  Bus1=259005036.1 kV= 7.19976905311778  XFKVA=15.000000 PF= 0.98  NumCust=0.000000 ! KW= 3.627604 
New Load.259005036_2 Phases= 1  Bus1=259005036.2 kV= 7.19976905311778  XFKVA=15.000000 PF= 0.98  NumCust=0.000000 ! KW= 2.688906 
New Load.259005036_3 Phases= 1  Bus1=259005036.3 kV= 7.19976905311778  XFKVA=15.000000 PF= 0.98  NumCust=0.000000 ! KW= 3.465524 
New Load.263514985_1 Phases= 1  Bus1=263514985.1 kV= 7.19976905311778  XFKVA=100.000000 PF= 0.98  kWh=25.070000 NumCust=1.000000 ! KW= 25.07 
New Load.263514985_2 Phases= 1  Bus1=263514985.2 kV= 7.19976905311778  XFKVA=100.000000 PF= 0.98  kWh=25.070000 NumCust=0.000000 ! KW= 25.07 
New Load.263514985_3 Phases= 1  Bus1=263514985.3 kV= 7.19976905311778  XFKVA=100.000000 PF= 0.98  kWh=25.070000 NumCust=0.000000 ! KW= 25.07 
New Load.259172465_2 Phases= 1  Bus1=259172465.2 kV= 7.19976905311778  XFKVA=25.000000 PF= 0.98  kWh=295.000000 NumCust=8.000000 ! KW= 4.48151 
New Load.260972105_1 Phases= 1  Bus1=260972105.1 kV= 7.19976905311778  XFKVA=100.000000 PF= 0.98  kWh=63.000000 NumCust=6.000000 ! KW= 24.184025 
New Load.261002735_2 Phases= 1  Bus1=261002735.2 kV= 7.19976905311778  XFKVA=50.000000 PF= 0.98  kWh=92.000000 NumCust=8.000000 ! KW= 8.96302 
New Load.259371838_1 Phases= 1  Bus1=259371838.1 kV= 7.19976905311778  XFKVA=25.000000 PF= 0.98  kWh=13.280000 NumCust=1.000000 ! KW= 6.046006 
New Load.258850982_1 Phases= 1  Bus1=258850982.1 kV= 7.19976905311778  XFKVA=25.000000 PF= 0.98  kWh=20.800000 NumCust=1.000000 ! KW= 6.046006 
New Load.258850982_2 Phases= 1  Bus1=258850982.2 kV= 7.19976905311778  XFKVA=25.000000 PF= 0.98  kWh=20.800000 NumCust=0.000000 ! KW= 4.48151 
New Load.258850982_3 Phases= 1  Bus1=258850982.3 kV= 7.19976905311778  XFKVA=25.000000 PF= 0.98  kWh=20.800000 NumCust=0.000000 ! KW= 5.775874 
New Load.261002695_1 Phases= 1  Bus1=261002695.1 kV= 7.19976905311778  XFKVA=50.000000 PF= 0.98  kWh=69.000000 NumCust=7.000000 ! KW= 12.092012 
New Load.260784295_3 Phases= 1  Bus1=260784295.3 kV= 7.19976905311778  XFKVA=50.000000 PF= 0.98  kWh=67.000000 NumCust=13.000000 ! KW= 11.551748 
New Load.260784290_3 Phases= 1  Bus1=260784290.3 kV= 7.19976905311778  XFKVA=50.000000 PF= 0.98  kWh=59.000000 NumCust=10.000000 ! KW= 11.551748 
New Load.259005021_2 Phases= 1  Bus1=259005021.2 kV= 7.19976905311778  XFKVA=15.000000 PF= 0.98  kWh=10.000000 NumCust=1.000000 ! KW= 2.688906 
New Load.261031178_2 Phases= 1  Bus1=261031178.2 kV= 7.19976905311778  XFKVA=50.000000 PF= 0.98  NumCust=0.000000 ! KW= 8.96302 
New Load.261031173_2 Phases= 1  Bus1=261031173.2 kV= 7.19976905311778  XFKVA=50.000000 PF= 0.98  kWh=42.000000 NumCust=3.000000 ! KW= 8.96302 
New Load.258851069_3 Phases= 1  Bus1=258851069.3 kV= 7.19976905311778  XFKVA=25.000000 PF= 0.98  NumCust=0.000000 ! KW= 5.775874 
New Load.261002716_2 Phases= 1  Bus1=261002716.2 kV= 7.19976905311778  XFKVA=50.000000 PF= 0.98  kWh=93.000000 NumCust=8.000000 ! KW= 8.96302 
New Load.260745457_2 Phases= 1  Bus1=260745457.2 kV= 7.19976905311778  XFKVA=75.000000 PF= 0.98  kWh=52.000000 NumCust=6.000000 ! KW= 13.444529 
New Load.261031154_1 Phases= 1  Bus1=261031154.1 kV= 7.19976905311778  XFKVA=100.000000 PF= 0.98  kWh=159.000000 NumCust=15.000000 ! KW= 24.184025 
New Load.263730570_1 Phases= 1  Bus1=263730570.1 kV= 7.19976905311778  XFKVA=50.000000 PF= 0.98  kWh=72.000000 NumCust=9.000000 ! KW= 12.092012 
New Load.259004980_2 Phases= 1  Bus1=259004980.2 kV= 7.19976905311778  XFKVA=25.000000 PF= 0.98  kWh=52.080000 NumCust=5.000000 ! KW= 4.48151 
New Load.263862867_1 Phases= 1  Bus1=263862867.1 kV= 7.19976905311778  XFKVA=75.000000 PF= 0.98  kWh=39.600000 NumCust=1.000000 ! KW= 18.138019 
New Load.460932379_1 Phases= 1  Bus1=460932379.1 kV= 7.19976905311778  XFKVA=50.000000 PF= 0.98  NumCust=0.000000 ! KW= 12.092012 
New Load.460932379_2 Phases= 1  Bus1=460932379.2 kV= 7.19976905311778  XFKVA=50.000000 PF= 0.98  NumCust=0.000000 ! KW= 8.96302 
New Load.460932379_3 Phases= 1  Bus1=460932379.3 kV= 7.19976905311778  XFKVA=50.000000 PF= 0.98  NumCust=0.000000 ! KW= 11.551748 
New Load.260745417_3 Phases= 1  Bus1=260745417.3 kV= 7.19976905311778  XFKVA=75.000000 PF= 0.98  kWh=61.000000 NumCust=7.000000 ! KW= 17.327622 
New Load.263511655_1 Phases= 1  Bus1=263511655.1 kV= 7.19976905311778  XFKVA=25.000000 PF= 0.98  kWh=17.180000 NumCust=2.000000 ! KW= 6.046006 
New Load.263511655_2 Phases= 1  Bus1=263511655.2 kV= 7.19976905311778  XFKVA=25.000000 PF= 0.98  kWh=17.180000 NumCust=0.000000 ! KW= 4.48151 
New Load.263511655_3 Phases= 1  Bus1=263511655.3 kV= 7.19976905311778  XFKVA=25.000000 PF= 0.98  kWh=17.180000 NumCust=0.000000 ! KW= 5.775874 
New Load.263565068_3 Phases= 1  Bus1=263565068.3 kV= 7.19976905311778  XFKVA=50.000000 PF= 0.98  kWh=76.000000 NumCust=13.000000 ! KW= 11.551748 
New Load.263511754_1 Phases= 1  Bus1=263511754.1 kV= 7.19976905311778  XFKVA=50.000000 PF= 0.98  kWh=47.000000 NumCust=5.000000 ! KW= 12.092012 
New Load.263730588_2 Phases= 1  Bus1=263730588.2 kV= 7.19976905311778  XFKVA=50.000000 PF= 0.98  kWh=96.000000 NumCust=10.000000 ! KW= 8.96302 
New Load.263973872_1 Phases= 1  Bus1=263973872.1 kV= 7.19976905311778  XFKVA=833.300000 PF= 0.98  kWh=408.000000 NumCust=1.000000 ! KW= 408 
New Load.263973872_2 Phases= 1  Bus1=263973872.2 kV= 7.19976905311778  XFKVA=833.300000 PF= 0.98  kWh=408.000000 NumCust=0.000000 ! KW= 408 
New Load.263973872_3 Phases= 1  Bus1=263973872.3 kV= 7.19976905311778  XFKVA=833.300000 PF= 0.98  kWh=408.000000 NumCust=0.000000 ! KW= 408 
New Load.258851232_3 Phases= 1  Bus1=258851232.3 kV= 7.19976905311778  XFKVA=50.000000 PF= 0.98  NumCust=0.000000 ! KW= 11.551748 
New Load.263511727_1 Phases= 1  Bus1=263511727.1 kV= 7.19976905311778  XFKVA=100.000000 PF= 0.98  kWh=28.400000 NumCust=2.000000 ! KW= 24.184025 
New Load.263511736_3 Phases= 1  Bus1=263511736.3 kV= 7.19976905311778  XFKVA=25.000000 PF= 0.98  kWh=23.000000 NumCust=2.000000 ! KW= 5.775874 
New Load.258850670_1 Phases= 1  Bus1=258850670.1 kV= 7.19976905311778  XFKVA=10.000000 PF= 0.98  kWh=8.133000 NumCust=1.000000 ! KW= 2.418402 
New Load.258850670_2 Phases= 1  Bus1=258850670.2 kV= 7.19976905311778  XFKVA=10.000000 PF= 0.98  kWh=8.133000 NumCust=0.000000 ! KW= 1.792604 
New Load.258850670_3 Phases= 1  Bus1=258850670.3 kV= 7.19976905311778  XFKVA=10.000000 PF= 0.98  kWh=8.133000 NumCust=0.000000 ! KW= 2.31035 
New Load.263511691_1 Phases= 1  Bus1=263511691.1 kV= 7.19976905311778  XFKVA=25.000000 PF= 0.98  kWh=21.400000 NumCust=2.000000 ! KW= 6.046006 
New Load.263511691_2 Phases= 1  Bus1=263511691.2 kV= 7.19976905311778  XFKVA=25.000000 PF= 0.98  kWh=21.400000 NumCust=0.000000 ! KW= 4.48151 
New Load.263511691_3 Phases= 1  Bus1=263511691.3 kV= 7.19976905311778  XFKVA=25.000000 PF= 0.98  kWh=21.400000 NumCust=0.000000 ! KW= 5.775874 
New Load.258850770_1 Phases= 1  Bus1=258850770.1 kV= 7.19976905311778  XFKVA=50.000000 PF= 0.98  NumCust=0.000000 ! KW= 12.092012 
New Load.258850770_2 Phases= 1  Bus1=258850770.2 kV= 7.19976905311778  XFKVA=50.000000 PF= 0.98  NumCust=0.000000 ! KW= 8.96302 
New Load.258850770_3 Phases= 1  Bus1=258850770.3 kV= 7.19976905311778  XFKVA=50.000000 PF= 0.98  NumCust=0.000000 ! KW= 11.551748 
New Load.263701630_1 Phases= 1  Bus1=263701630.1 kV= 7.19976905311778  XFKVA=100.000000 PF= 0.98  kWh=112.000000 NumCust=13.000000 ! KW= 24.184025 
New Load.263511709_1 Phases= 1  Bus1=263511709.1 kV= 7.19976905311778  XFKVA=500.000000 PF= 0.98  kWh=67.410000 NumCust=2.000000 ! KW= 67.41 
New Load.263511709_2 Phases= 1  Bus1=263511709.2 kV= 7.19976905311778  XFKVA=500.000000 PF= 0.98  kWh=67.410000 NumCust=0.000000 ! KW= 67.41 
New Load.263511709_3 Phases= 1  Bus1=263511709.3 kV= 7.19976905311778  XFKVA=500.000000 PF= 0.98  kWh=67.410000 NumCust=0.000000 ! KW= 67.41 
New Load.258840452_2 Phases= 1  Bus1=258840452.2 kV= 7.19976905311778  XFKVA=25.000000 PF= 0.98  kWh=1.000000 NumCust=1.000000 ! KW= 4.48151 
New Load.258850655_1 Phases= 1  Bus1=258850655.1 kV= 7.19976905311778  XFKVA=50.000000 PF= 0.98  NumCust=0.000000 ! KW= 12.092012 
New Load.258850655_2 Phases= 1  Bus1=258850655.2 kV= 7.19976905311778  XFKVA=50.000000 PF= 0.98  NumCust=0.000000 ! KW= 8.96302 
New Load.258850655_3 Phases= 1  Bus1=258850655.3 kV= 7.19976905311778  XFKVA=50.000000 PF= 0.98  NumCust=0.000000 ! KW= 11.551748 
New Load.258840272_3 Phases= 1  Bus1=258840272.3 kV= 7.19976905311778  XFKVA=25.000000 PF= 0.98  kWh=38.000000 NumCust=5.000000 ! KW= 5.775874 
New Load.263638667_3 Phases= 1  Bus1=263638667.3 kV= 7.19976905311778  XFKVA=15.000000 PF= 0.98  kWh=1.000000 NumCust=2.000000 ! KW= 3.465524 
New Load.263701612_3 Phases= 1  Bus1=263701612.3 kV= 7.19976905311778  XFKVA=50.000000 PF= 0.98  kWh=45.000000 NumCust=3.000000 ! KW= 11.551748 
New Load.263565095_1 Phases= 1  Bus1=263565095.1 kV= 7.19976905311778  XFKVA=50.000000 PF= 0.98  kWh=25.600000 NumCust=1.000000 ! KW= 12.092012 
New Load.263565095_2 Phases= 1  Bus1=263565095.2 kV= 7.19976905311778  XFKVA=50.000000 PF= 0.98  kWh=25.600000 NumCust=0.000000 ! KW= 8.96302 
New Load.263565095_3 Phases= 1  Bus1=263565095.3 kV= 7.19976905311778  XFKVA=50.000000 PF= 0.98  kWh=25.600000 NumCust=0.000000 ! KW= 11.551748 
New Load.258850569_1 Phases= 1  Bus1=258850569.1 kV= 7.19976905311778  XFKVA=25.000000 PF= 0.98  kWh=25.610000 NumCust=2.000000 ! KW= 6.046006 
New Load.258850569_2 Phases= 1  Bus1=258850569.2 kV= 7.19976905311778  XFKVA=25.000000 PF= 0.98  kWh=25.610000 NumCust=0.000000 ! KW= 4.48151 
New Load.258850569_3 Phases= 1  Bus1=258850569.3 kV= 7.19976905311778  XFKVA=25.000000 PF= 0.98  kWh=25.610000 NumCust=0.000000 ! KW= 5.775874 
New Load.258850549_1 Phases= 1  Bus1=258850549.1 kV= 7.19976905311778  XFKVA=25.000000 PF= 0.98  kWh=1.667000 NumCust=1.000000 ! KW= 6.046006 
New Load.258850549_2 Phases= 1  Bus1=258850549.2 kV= 7.19976905311778  XFKVA=25.000000 PF= 0.98  kWh=1.667000 NumCust=0.000000 ! KW= 4.48151 
New Load.258850549_3 Phases= 1  Bus1=258850549.3 kV= 7.19976905311778  XFKVA=25.000000 PF= 0.98  kWh=1.667000 NumCust=0.000000 ! KW= 5.775874 
New Load.258839936_1 Phases= 1  Bus1=258839936.1 kV= 7.19976905311778  XFKVA=25.000000 PF= 0.98  kWh=18.670000 NumCust=1.000000 ! KW= 6.046006 
New Load.258839936_2 Phases= 1  Bus1=258839936.2 kV= 7.19976905311778  XFKVA=25.000000 PF= 0.98  kWh=18.670000 NumCust=0.000000 ! KW= 4.48151 
New Load.258839936_3 Phases= 1  Bus1=258839936.3 kV= 7.19976905311778  XFKVA=25.000000 PF= 0.98  kWh=18.670000 NumCust=0.000000 ! KW= 5.775874 
New Load.258840408_3 Phases= 1  Bus1=258840408.3 kV= 7.19976905311778  XFKVA=25.000000 PF= 0.98  kWh=19.000000 NumCust=2.000000 ! KW= 5.775874 
New Load.258840356_1 Phases= 1  Bus1=258840356.1 kV= 7.19976905311778  XFKVA=149.000000 PF= 0.98  kWh=98.670000 NumCust=7.000000 ! KW= 98.67 
New Load.258840356_2 Phases= 1  Bus1=258840356.2 kV= 7.19976905311778  XFKVA=149.000000 PF= 0.98  kWh=98.670000 NumCust=0.000000 ! KW= 98.67 
New Load.258840356_3 Phases= 1  Bus1=258840356.3 kV= 7.19976905311778  XFKVA=148.000000 PF= 0.98  kWh=98.670000 NumCust=0.000000 ! KW= 98.67 
New Load.258851268_1 Phases= 1  Bus1=258851268.1 kV= 7.19976905311778  XFKVA=50.000000 PF= 0.98  kWh=8.000000 NumCust=1.000000 ! KW= 12.092012 
New Load.258851268_2 Phases= 1  Bus1=258851268.2 kV= 7.19976905311778  XFKVA=50.000000 PF= 0.98  kWh=8.000000 NumCust=0.000000 ! KW= 8.96302 
New Load.258851268_3 Phases= 1  Bus1=258851268.3 kV= 7.19976905311778  XFKVA=50.000000 PF= 0.98  kWh=8.000000 NumCust=0.000000 ! KW= 11.551748 
New Load.258850710_2 Phases= 1  Bus1=258850710.2 kV= 7.19976905311778  XFKVA=10.000000 PF= 0.98  NumCust=0.000000 ! KW= 1.792604 
New Load.258839921_1 Phases= 1  Bus1=258839921.1 kV= 7.19976905311778  XFKVA=25.000000 PF= 0.98  NumCust=0.000000 ! KW= 6.046006 
New Load.263701594_1 Phases= 1  Bus1=263701594.1 kV= 7.19976905311778  XFKVA=100.000000 PF= 0.98  kWh=76.000000 NumCust=7.000000 ! KW= 24.184025 
New Load.264021666_1 Phases= 1  Bus1=264021666.1 kV= 7.19976905311778  XFKVA=500.000000 PF= 0.98  kWh=300.000000 NumCust=1.000000 ! KW= 300 
New Load.264021666_2 Phases= 1  Bus1=264021666.2 kV= 7.19976905311778  XFKVA=500.000000 PF= 0.98  kWh=300.000000 NumCust=0.000000 ! KW= 300 
New Load.264021666_3 Phases= 1  Bus1=264021666.3 kV= 7.19976905311778  XFKVA=500.000000 PF= 0.98  kWh=300.000000 NumCust=0.000000 ! KW= 300 
New Load.258851422_1 Phases= 1  Bus1=258851422.1 kV= 7.19976905311778  XFKVA=25.000000 PF= 0.98  kWh=40.000000 NumCust=4.000000 ! KW= 6.046006 
New Load.258840005_3 Phases= 1  Bus1=258840005.3 kV= 7.19976905311778  XFKVA=15.000000 PF= 0.98  kWh=25.000000 NumCust=2.000000 ! KW= 3.465524 
New Load.258840210_1 Phases= 1  Bus1=258840210.1 kV= 7.19976905311778  XFKVA=10.000000 PF= 0.98  kWh=14.930000 NumCust=3.000000 ! KW= 2.418402 
New Load.258840210_2 Phases= 1  Bus1=258840210.2 kV= 7.19976905311778  XFKVA=10.000000 PF= 0.98  kWh=14.930000 NumCust=0.000000 ! KW= 1.792604 
New Load.258840210_3 Phases= 1  Bus1=258840210.3 kV= 7.19976905311778  XFKVA=10.000000 PF= 0.98  kWh=14.930000 NumCust=0.000000 ! KW= 2.31035 
New Load.258840036_3 Phases= 1  Bus1=258840036.3 kV= 7.19976905311778  XFKVA=5.000000 PF= 0.98  NumCust=0.000000 ! KW= 1.155175 
New Load.258840219_3 Phases= 1  Bus1=258840219.3 kV= 7.19976905311778  XFKVA=25.000000 PF= 0.98  kWh=32.000000 NumCust=3.000000 ! KW= 5.775874 
New Load.258840027_3 Phases= 1  Bus1=258840027.3 kV= 7.19976905311778  XFKVA=25.000000 PF= 0.98  kWh=11.000000 NumCust=1.000000 ! KW= 5.775874 
New Load.258851069-2_2 Phases= 1  Bus1=258851069.3 kV= 7.19976905311778  XFKVA=75.000000 PF= 0.98  kWh=9.600000 NumCust=1.000000 ! KW= 17.327622 
New Load.258839980_1 Phases= 1  Bus1=258839980.1 kV= 7.19976905311778  XFKVA=25.000000 PF= 0.98  kWh=1.407000 NumCust=2.000000 ! KW= 6.046006 
New Load.258839980_2 Phases= 1  Bus1=258839980.2 kV= 7.19976905311778  XFKVA=25.000000 PF= 0.98  kWh=1.407000 NumCust=0.000000 ! KW= 4.48151 
New Load.258839980_3 Phases= 1  Bus1=258839980.3 kV= 7.19976905311778  XFKVA=25.000000 PF= 0.98  kWh=1.407000 NumCust=0.000000 ! KW= 5.775874 
New Load.258840397_3 Phases= 1  Bus1=258840397.3 kV= 7.19976905311778  XFKVA=25.000000 PF= 0.98  kWh=74.000000 NumCust=6.000000 ! KW= 5.775874 
New Load.472683911_1 Phases= 1  Bus1=472683911.1 kV= 7.19976905311778  XFKVA=75.000000 PF= 0.98  kWh=19.520000 NumCust=1.000000 ! KW= 18.138019 
New Load.472683911_2 Phases= 1  Bus1=472683911.2 kV= 7.19976905311778  XFKVA=75.000000 PF= 0.98  kWh=19.520000 NumCust=0.000000 ! KW= 13.444529 
New Load.472683911_3 Phases= 1  Bus1=472683911.3 kV= 7.19976905311778  XFKVA=75.000000 PF= 0.98  kWh=19.520000 NumCust=0.000000 ! KW= 17.327622 
New Load.258851412_1 Phases= 1  Bus1=258851412.1 kV= 7.19976905311778  XFKVA=25.000000 PF= 0.98  kWh=10.000000 NumCust=1.000000 ! KW= 6.046006 
New Load.263515075_2 Phases= 1  Bus1=263515075.2 kV= 7.19976905311778  XFKVA=50.000000 PF= 0.98  kWh=16.000000 NumCust=2.000000 ! KW= 8.96302 
New Load.258851348_3 Phases= 1  Bus1=258851348.3 kV= 7.19976905311778  XFKVA=50.000000 PF= 0.98  kWh=65.000000 NumCust=6.000000 ! KW= 11.551748 
New Load.258840132_1 Phases= 1  Bus1=258840132.1 kV= 7.19976905311778  XFKVA=25.000000 PF= 0.98  kWh=9.187000 NumCust=4.000000 ! KW= 6.046006 
New Load.258840132_2 Phases= 1  Bus1=258840132.2 kV= 7.19976905311778  XFKVA=25.000000 PF= 0.98  kWh=9.187000 NumCust=0.000000 ! KW= 4.48151 
New Load.258840132_3 Phases= 1  Bus1=258840132.3 kV= 7.19976905311778  XFKVA=25.000000 PF= 0.98  kWh=9.187000 NumCust=0.000000 ! KW= 5.775874 
New Load.258851227_3 Phases= 1  Bus1=258851227.3 kV= 7.19976905311778  XFKVA=50.000000 PF= 0.98  kWh=117.000000 NumCust=12.000000 ! KW= 11.551748 
New Load.258840012_1 Phases= 1  Bus1=258840012.1 kV= 7.19976905311778  XFKVA=25.000000 PF= 0.98  NumCust=0.000000 ! KW= 6.046006 
New Load.258851054_2 Phases= 1  Bus1=258851054.2 kV= 7.19976905311778  XFKVA=25.000000 PF= 0.98  NumCust=0.000000 ! KW= 4.48151 
New Load.258840072_2 Phases= 1  Bus1=258840072.2 kV= 7.19976905311778  XFKVA=25.000000 PF= 0.98  kWh=8.950000 NumCust=0.000000 ! KW= 4.48151 
New Load.258840072_3 Phases= 1  Bus1=258840072.3 kV= 7.19976905311778  XFKVA=25.000000 PF= 0.98  kWh=8.950000 NumCust=0.000000 ! KW= 5.775874 
New Load.258840072_1 Phases= 1  Bus1=258840072.1 kV= 7.19976905311778  XFKVA=25.000000 PF= 0.98  kWh=8.950000 NumCust=2.000000 ! KW= 6.046006 
New Load.263515048_3 Phases= 1  Bus1=263515048.3 kV= 7.19976905311778  XFKVA=75.000000 PF= 0.98  kWh=61.000000 NumCust=6.000000 ! KW= 17.327622 
New Load.258840093_2 Phases= 1  Bus1=258840093.2 kV= 7.19976905311778  XFKVA=50.000000 PF= 0.98  kWh=68.920000 NumCust=4.000000 ! KW= 8.96302 
New Load.259545338_1 Phases= 1  Bus1=259545338.1 kV= 7.19976905311778  XFKVA=25.000000 PF= 0.98  kWh=8.267000 NumCust=1.000000 ! KW= 6.046006 
New Load.259545338_2 Phases= 1  Bus1=259545338.2 kV= 7.19976905311778  XFKVA=25.000000 PF= 0.98  kWh=8.267000 NumCust=0.000000 ! KW= 4.48151 
New Load.259545338_3 Phases= 1  Bus1=259545338.3 kV= 7.19976905311778  XFKVA=25.000000 PF= 0.98  kWh=8.267000 NumCust=0.000000 ! KW= 5.775874 
New Load.258851328_3 Phases= 1  Bus1=258851328.3 kV= 7.19976905311778  XFKVA=50.000000 PF= 0.98  kWh=18.200000 NumCust=1.000000 ! KW= 11.551748 
New Load.258840185_3 Phases= 1  Bus1=258840185.3 kV= 7.19976905311778  XFKVA=50.000000 PF= 0.98  kWh=14.000000 NumCust=1.000000 ! KW= 11.551748 
New Load.258851212_3 Phases= 1  Bus1=258851212.3 kV= 7.19976905311778  XFKVA=25.000000 PF= 0.98  kWh=31.000000 NumCust=3.000000 ! KW= 5.775874 
New Load.258840086_2 Phases= 1  Bus1=258840086.2 kV= 7.19976905311778  XFKVA=25.000000 PF= 0.98  kWh=14.000000 NumCust=2.000000 ! KW= 4.48151 
New Load.258851207_2 Phases= 1  Bus1=258851207.2 kV= 7.19976905311778  XFKVA=25.000000 PF= 0.98  kWh=23.000000 NumCust=2.000000 ! KW= 4.48151 
New Load.258840435_2 Phases= 1  Bus1=258840435.2 kV= 7.19976905311778  XFKVA=15.000000 PF= 0.98  NumCust=0.000000 ! KW= 2.688906 
New Load.263515030_1 Phases= 1  Bus1=263515030.1 kV= 7.19976905311778  XFKVA=50.000000 PF= 0.98  kWh=31.600000 NumCust=2.000000 ! KW= 12.092012 
New Load.258851029_1 Phases= 1  Bus1=258851029.1 kV= 7.19976905311778  XFKVA=50.000000 PF= 0.98  kWh=29.330000 NumCust=2.000000 ! KW= 12.092012 
New Load.258851029_2 Phases= 1  Bus1=258851029.2 kV= 7.19976905311778  XFKVA=50.000000 PF= 0.98  kWh=29.330000 NumCust=0.000000 ! KW= 8.96302 
New Load.258851029_3 Phases= 1  Bus1=258851029.3 kV= 7.19976905311778  XFKVA=50.000000 PF= 0.98  kWh=29.330000 NumCust=0.000000 ! KW= 11.551748 
New Load.263515156_1 Phases= 1  Bus1=263515156.1 kV= 7.19976905311778  XFKVA=250.000000 PF= 0.98  kWh=9.600000 NumCust=1.000000 ! KW= 9.6 
New Load.263515156_2 Phases= 1  Bus1=263515156.2 kV= 7.19976905311778  XFKVA=250.000000 PF= 0.98  kWh=9.600000 NumCust=0.000000 ! KW= 9.6 
New Load.263515156_3 Phases= 1  Bus1=263515156.3 kV= 7.19976905311778  XFKVA=250.000000 PF= 0.98  kWh=9.600000 NumCust=0.000000 ! KW= 9.6 
New Load.258851155_1 Phases= 1  Bus1=258851155.1 kV= 7.19976905311778  XFKVA=25.000000 PF= 0.98  kWh=48.000000 NumCust=4.000000 ! KW= 6.046006 
New Load.460932401_1 Phases= 1  Bus1=460932401.1 kV= 7.19976905311778  XFKVA=50.000000 PF= 0.98  NumCust=0.000000 ! KW= 12.092012 
New Load.460932401_2 Phases= 1  Bus1=460932401.2 kV= 7.19976905311778  XFKVA=50.000000 PF= 0.98  NumCust=0.000000 ! KW= 8.96302 
New Load.460932401_3 Phases= 1  Bus1=460932401.3 kV= 7.19976905311778  XFKVA=50.000000 PF= 0.98  NumCust=0.000000 ! KW= 11.551748 
New Load.263815492_1 Phases= 1  Bus1=263815492.1 kV= 7.19976905311778  XFKVA=50.000000 PF= 0.98  kWh=138.000000 NumCust=9.000000 ! KW= 12.092012 
New Load.258851313_1 Phases= 1  Bus1=258851313.1 kV= 7.19976905311778  XFKVA=75.000000 PF= 0.98  kWh=5.467000 NumCust=1.000000 ! KW= 18.138019 
New Load.258851313_2 Phases= 1  Bus1=258851313.2 kV= 7.19976905311778  XFKVA=75.000000 PF= 0.98  kWh=5.467000 NumCust=0.000000 ! KW= 13.444529 
New Load.258851313_3 Phases= 1  Bus1=258851313.3 kV= 7.19976905311778  XFKVA=75.000000 PF= 0.98  kWh=5.467000 NumCust=0.000000 ! KW= 17.327622 
New Load.258851133_3 Phases= 1  Bus1=258851133.3 kV= 7.19976905311778  XFKVA=25.000000 PF= 0.98  kWh=67.000000 NumCust=7.000000 ! KW= 5.775874 
New Load.258840393_1 Phases= 1  Bus1=258840393.1 kV= 7.19976905311778  XFKVA=37.500000 PF= 0.98  kWh=8.903000 NumCust=1.000000 ! KW= 9.069009 
New Load.258840393_2 Phases= 1  Bus1=258840393.2 kV= 7.19976905311778  XFKVA=37.500000 PF= 0.98  kWh=8.903000 NumCust=0.000000 ! KW= 6.722265 
New Load.258840393_3 Phases= 1  Bus1=258840393.3 kV= 7.19976905311778  XFKVA=37.500000 PF= 0.98  kWh=8.903000 NumCust=0.000000 ! KW= 8.663811 
New Load.263515093_1 Phases= 1  Bus1=263515093.1 kV= 7.19976905311778  XFKVA=25.000000 PF= 0.98  NumCust=0.000000 ! KW= 6.046006 
New Load.263515093_2 Phases= 1  Bus1=263515093.2 kV= 7.19976905311778  XFKVA=25.000000 PF= 0.98  NumCust=0.000000 ! KW= 4.48151 
New Load.263515093_3 Phases= 1  Bus1=263515093.3 kV= 7.19976905311778  XFKVA=25.000000 PF= 0.98  NumCust=0.000000 ! KW= 5.775874 
New Load.263515012_1 Phases= 1  Bus1=263515012.1 kV= 7.19976905311778  XFKVA=100.000000 PF= 0.98  kWh=101.100000 NumCust=1.000000 ! KW= 101.1 
New Load.263515012_2 Phases= 1  Bus1=263515012.2 kV= 7.19976905311778  XFKVA=100.000000 PF= 0.98  kWh=101.100000 NumCust=0.000000 ! KW= 101.1 
New Load.263515012_3 Phases= 1  Bus1=263515012.3 kV= 7.19976905311778  XFKVA=100.000000 PF= 0.98  kWh=101.100000 NumCust=0.000000 ! KW= 101.1 
New Load.261124309_1 Phases= 1  Bus1=261124309.1 kV= 7.19976905311778  XFKVA=250.000000 PF= 0.98  NumCust=0.000000 ! KW= 0 
New Load.261124309_2 Phases= 1  Bus1=261124309.2 kV= 7.19976905311778  XFKVA=250.000000 PF= 0.98  NumCust=0.000000 ! KW= 0 
New Load.261124309_3 Phases= 1  Bus1=261124309.3 kV= 7.19976905311778  XFKVA=250.000000 PF= 0.98  NumCust=0.000000 ! KW= 0 
New Load.460932413_1 Phases= 1  Bus1=460932413.1 kV= 7.19976905311778  XFKVA=250.000000 PF= 0.98  NumCust=0.000000 ! KW= 0 
New Load.460932413_2 Phases= 1  Bus1=460932413.2 kV= 7.19976905311778  XFKVA=250.000000 PF= 0.98  NumCust=0.000000 ! KW= 0 
New Load.460932413_3 Phases= 1  Bus1=460932413.3 kV= 7.19976905311778  XFKVA=250.000000 PF= 0.98  NumCust=0.000000 ! KW= 0 
New Load.258851108_2 Phases= 1  Bus1=258851108.2 kV= 7.19976905311778  XFKVA=50.000000 PF= 0.98  kWh=53.000000 NumCust=5.000000 ! KW= 8.96302 
New Load.263515111_1 Phases= 1  Bus1=263515111.1 kV= 7.19976905311778  XFKVA=75.000000 PF= 0.98  kWh=64.000000 NumCust=7.000000 ! KW= 18.138019 
New Load.263514868_1 Phases= 1  Bus1=263514868.1 kV= 7.19976905311778  XFKVA=25.000000 PF= 0.98  kWh=16.000000 NumCust=2.000000 ! KW= 6.046006 
New Load.263514868_2 Phases= 1  Bus1=263514868.2 kV= 7.19976905311778  XFKVA=25.000000 PF= 0.98  kWh=16.000000 NumCust=0.000000 ! KW= 4.48151 
New Load.263514868_3 Phases= 1  Bus1=263514868.3 kV= 7.19976905311778  XFKVA=25.000000 PF= 0.98  kWh=16.000000 NumCust=0.000000 ! KW= 5.775874 
New Load.261123019_1 Phases= 1  Bus1=261123019.1 kV= 7.19976905311778  XFKVA=75.000000 PF= 0.98  NumCust=0.000000 ! KW= 18.138019 
New Load.261123019_2 Phases= 1  Bus1=261123019.2 kV= 7.19976905311778  XFKVA=75.000000 PF= 0.98  NumCust=0.000000 ! KW= 13.444529 
New Load.261123019_3 Phases= 1  Bus1=261123019.3 kV= 7.19976905311778  XFKVA=75.000000 PF= 0.98  NumCust=0.000000 ! KW= 17.327622 
New Load.260784260_3 Phases= 1  Bus1=260784260.3 kV= 7.19976905311778  XFKVA=75.000000 PF= 0.98  kWh=51.000000 NumCust=7.000000 ! KW= 17.327622 
New Load.261002761_1 Phases= 1  Bus1=261002761.1 kV= 7.19976905311778  XFKVA=25.000000 PF= 0.98  kWh=49.000000 NumCust=5.000000 ! KW= 6.046006 
New Load.462745747_1 Phases= 1  Bus1=462745747.1 kV= 7.19976905311778  XFKVA=250.000000 PF= 0.98  NumCust=0.000000 ! KW= 0 
New Load.462745747_2 Phases= 1  Bus1=462745747.2 kV= 7.19976905311778  XFKVA=250.000000 PF= 0.98  NumCust=0.000000 ! KW= 0 
New Load.462745747_3 Phases= 1  Bus1=462745747.3 kV= 7.19976905311778  XFKVA=250.000000 PF= 0.98  NumCust=0.000000 ! KW= 0 
New Load.261002770_1 Phases= 1  Bus1=261002770.1 kV= 7.19976905311778  XFKVA=50.000000 PF= 0.98  kWh=56.000000 NumCust=5.000000 ! KW= 12.092012 
New Load.259005026-2_2 Phases= 1  Bus1=259005026.2 kV= 7.19976905311778  XFKVA=25.000000 PF= 0.98  NumCust=0.000000 ! KW= 4.48151 
New Load.260784245_3 Phases= 1  Bus1=260784245.3 kV= 7.19976905311778  XFKVA=75.000000 PF= 0.98  kWh=60.000000 NumCust=8.000000 ! KW= 17.327622 
New Load.263514832_1 Phases= 1  Bus1=263514832.1 kV= 7.19976905311778  XFKVA=250.000000 PF= 0.98  NumCust=0.000000 ! KW= 0 
New Load.263514832_2 Phases= 1  Bus1=263514832.2 kV= 7.19976905311778  XFKVA=250.000000 PF= 0.98  NumCust=0.000000 ! KW= 0 
New Load.263514832_3 Phases= 1  Bus1=263514832.3 kV= 7.19976905311778  XFKVA=250.000000 PF= 0.98  NumCust=0.000000 ! KW= 0 
New Load.261002746_1 Phases= 1  Bus1=261002746.1 kV= 7.19976905311778  XFKVA=25.000000 PF= 0.98  kWh=56.000000 NumCust=6.000000 ! KW= 6.046006 
New Load.259005041_2 Phases= 1  Bus1=259005041.2 kV= 7.19976905311778  XFKVA=50.000000 PF= 0.98  NumCust=0.000000 ! KW= 8.96302 
New Load.263514814_1 Phases= 1  Bus1=263514814.1 kV= 7.19976905311778  XFKVA=50.000000 PF= 0.98  kWh=34.240000 NumCust=1.000000 ! KW= 12.092012 
New Load.263514814_2 Phases= 1  Bus1=263514814.2 kV= 7.19976905311778  XFKVA=50.000000 PF= 0.98  kWh=34.240000 NumCust=0.000000 ! KW= 8.96302 
New Load.263514814_3 Phases= 1  Bus1=263514814.3 kV= 7.19976905311778  XFKVA=50.000000 PF= 0.98  kWh=34.240000 NumCust=0.000000 ! KW= 11.551748 
New Load.261002721_2 Phases= 1  Bus1=261002721.2 kV= 7.19976905311778  XFKVA=25.000000 PF= 0.98  kWh=61.000000 NumCust=6.000000 ! KW= 4.48151 
New Load.260972095_2 Phases= 1  Bus1=260972095.2 kV= 7.19976905311778  XFKVA=50.000000 PF= 0.98  kWh=37.000000 NumCust=4.000000 ! KW= 8.96302 
New Load.258850989_2 Phases= 1  Bus1=258850989.2 kV= 7.19976905311778  XFKVA=25.000000 PF= 0.98  kWh=18.000000 NumCust=1.000000 ! KW= 4.48151 
